Version 4
SHEET 1 1188 680
WIRE 288 -144 160 -144
WIRE 496 -144 368 -144
WIRE -352 0 -368 0
WIRE -128 0 -352 0
WIRE 64 0 -48 0
WIRE 160 0 160 -144
WIRE 160 0 64 0
WIRE 224 0 160 0
WIRE 224 16 224 0
WIRE 304 16 224 16
WIRE -368 32 -368 0
WIRE 496 32 496 -144
WIRE 496 32 368 32
WIRE 544 32 496 32
WIRE 704 32 608 32
WIRE 864 32 704 32
WIRE 304 48 224 48
WIRE 224 64 224 48
WIRE 224 64 176 64
WIRE 704 80 704 32
WIRE -160 128 -192 128
WIRE -128 128 -160 128
WIRE 64 128 64 0
WIRE 64 128 -48 128
WIRE 176 128 176 64
WIRE -368 144 -368 112
WIRE -192 208 -192 128
WIRE -192 320 -192 288
WIRE 512 448 512 400
WIRE 608 448 512 448
WIRE 608 464 608 448
WIRE 512 496 512 448
FLAG 864 32 Vout
IOPIN 864 32 Out
FLAG 608 464 0
FLAG 512 320 VCC
FLAG 336 0 VCC
FLAG 512 576 VEE
FLAG 336 64 VEE
FLAG -368 144 0
FLAG -192 320 0
FLAG 176 128 0
FLAG 704 160 0
FLAG -352 0 vin_n
FLAG -160 128 vin_p
SYMBOL res 384 -160 R90
WINDOW 0 0 56 VBottom 2
WINDOW 3 32 56 VTop 2
SYMATTR InstName R1
SYMATTR Value 25k
SYMBOL res -32 -16 R90
WINDOW 0 0 56 VBottom 2
WINDOW 3 32 56 VTop 2
SYMATTR InstName R2
SYMATTR Value 2.5k
SYMBOL res -32 112 R90
WINDOW 0 0 56 VBottom 2
WINDOW 3 32 56 VTop 2
SYMATTR InstName R3
SYMATTR Value 2.5k
SYMBOL voltage -192 192 R0
WINDOW 0 24 24 Left 2
WINDOW 3 29 89 Left 2
WINDOW 123 0 0 Left 0
WINDOW 39 0 0 Left 0
SYMATTR InstName V2
SYMATTR Value SINE(1 1.5 1k)
SYMBOL voltage -368 16 R0
WINDOW 123 0 0 Left 0
WINDOW 39 0 0 Left 0
SYMATTR InstName V3
SYMATTR Value SINE(1 0.5 1k)
SYMBOL Opamps\\OP07 336 -32 R0
SYMATTR InstName U1
SYMBOL voltage 512 304 R0
WINDOW 123 0 0 Left 0
WINDOW 39 0 0 Left 0
SYMATTR InstName V4
SYMATTR Value 30
SYMBOL voltage 512 480 R0
WINDOW 123 0 0 Left 0
WINDOW 39 0 0 Left 0
SYMATTR InstName V5
SYMATTR Value 50
SYMBOL res 720 176 R180
WINDOW 0 36 76 Left 2
WINDOW 3 36 40 Left 2
SYMATTR InstName R4
SYMATTR Value 10k
SYMBOL cap 608 16 R90
WINDOW 0 0 32 VBottom 2
WINDOW 3 32 32 VTop 2
SYMATTR InstName C1
SYMATTR Value 1m
TEXT 56 328 Left 2 !.tran 5m
TEXT 216 240 Left 2 ;Preetesh Verma
TEXT 224 296 Left 2 ;2018eeb1171
